<NUMBER OF ZONES> 15														
<NUMBER OF NODES> 15														
<FIRST THROUGH NODE> 1															
<NUMBER OF LINKS> 40														
<ORIGINAL HEADER>~ 	Init node 	Term node 	Capacity 	Length 	Free Flow Time 	B	Power	Speed limit 	Toll 	Type	lanes;				
<END OF METADATA>															
															
															
~	init_node	term_node	capacity	length	free_flow_time	b	power	speed	toll	link_type	lanes	;			
	1	2	10000	0.3	0.3	0.15	4	0	0	1	0.0035	;			
	1	3	10000	1.3	1.3	0.15	4	0	0	1	0.0035	;			
	2	1	10000	0.3	0.3	0.15	4	0	0	1	0.0035	;			
	2	4	100000	0.8	0.8	0.15	4	0	0	1	0.0035	;			
	3	1	10000	1.3	1.3	0.15	4	0	0	1	0.0035	;			
	3	4	10000	1	1	0.15	4	0	0	1	0.0035	;			
	3	5	10000	0.4	0.4	0.15	4	0	0	1	0.0035  ;			
	3	6	10000	0.35	0.35	0.15	4	0	0	1	0.0035	;			
	4	2	10000	0.8	0.8	0.15	4	0	0	1	0.0035	;			
	4	3	10000	1	1	0.15	4	0	0	1	0.0035	;			
	5	3	10000	0.4	0.4	0.15	4	0	0	1	0.0035	;			
	5	6	10000	0.4	0.4	0.15	4	0	0	1	0.0035	;			
	5	8	10000	0.5	0.5	0.15	4	0	0	1	0.0035	;			
	5	9	10000	0.55	0.55	0.15	4	0	0	1	0.0035	;			
	6	3	10000	0.35	0.35	0.15	4	0	0	1	0.0035	;			
	6	5	10000	0.4	0.4	0.15	4	0	0	1	0.0035	;			
	6	7	10000	0.4	0.4	0.15	4	0	0	1	0.0035	;			
	7	6	10000	0.4	0.4	0.15	4	0	0	1	0.0035	;			
	7	8	10000	0.4	0.4	0.15	4	0	0	1	0.0035  ;			
	7	12	10000	0.9	0.9	0.15	4	0	0	1	0.0035	;			
	8	5	10000	0.5	0.5	0.15	4	0	0	1	0.0035	;
    8	7	10000   0.4    0.4    0.15	4	0	0	1	0.0035	;			
	8	10	10000	0.55	0.55	0.15	4	0	0	1	0.0035	;			
	9	5	10000	0.55	0.55	0.15	4	0	0	1	0.0035	;			
	9	10	10000	1	1	0.15	4	0	0	1	0.0035	;			
	10	8	10000	0.55	0.55	0.15	4	0	0	1	0.0035  ;			
	10	9	10000	1	1	0.15	4	0	0	1	0.0035  ;			
	10	11	10000	0.4	0.4	0.15	4	0	0	1	0.0035	;			
	11	10	10000	0.4	0.4	0.15	4	0	0	1	0.0035	;			
	11	12	10000	0.65	0.65	0.15	4	0	0	1	0.0035	;			
	12	7	10000	0.9	0.9	0.15	4	0	0	1	0.0035	;			
	12	11	10000	0.65	0.65	0.15	4	0	0	1	0.0035	;			
	12	13	10000	0.3	0.3	0.15	4	0	0	1	0.0035	;			
	12	15	10000	0.5	0.5	0.15	4	0	0	1	0.0035	;			
	13	12	10000	0.3	0.3	0.15	4	0	0	1	0.0035	;			
	13	14	10000	0.35	0.35	0.15	4	0	0	1	0.0070	;			
	14	13	10000	0.35	0.35	0.15	4	0	0	1	0.0035	;			
	14	15	10000	0.45	0.45	0.15	4	0	0	1	0.0070	;			
	15	12	10000	0.5	0.5	0.15	4	0	0	1	0.0035	;			
	15	14	10000	0.45	0.45	0.15	4	0	0	1	0.0035	;