<NUMBER OF ZONES> 15<TOTAL OD FLOW> 139600.0<END OF METADATA>Origin  1    1 :      0.0;     2 :    100.0;	     3 :    100.0;     4 :    500.0;     5 :    200.0;     6 :    300.0;     7 :    500.0;     8 :    800.0;     9 :    500.0;    10 :   1300.0;    11 :    500.0;    12 :    200.0;    13 :    500.0;    14 :    300.0;    15 :    500.0; Origin  2    1 :    100.0;     2 :      0.0;     3 :    100.0;     4 :    200.0;     5 :    100.0;     6 :    400.0;     7 :    200.0;     8 :    400.0;     9 :    200.0;    10 :    600.0;    11 :    200.0;    12 :    100.0;    13 :    300.0;    14 :    100.0;    15 :    100.0; Origin  3    1 :    100.0;     2 :    100.0;     3 :      0.0;     4 :    200.0;     5 :    100.0;     6 :    300.0;     7 :    100.0;     8 :    200.0;     9 :    100.0;    10 :    300.0;    11 :    300.0;    12 :    200.0;    13 :    100.0;    14 :    100.0;    15 :    100.0; Origin  4    1 :    500.0;     2 :    200.0;     3 :    200.0;     4 :      0.0;     5 :    500.0;     6 :    400.0;     7 :    400.0;     8 :    700.0;     9 :    700.0;    10 :   1200.0;    11 :   1400.0;    12 :    600.0;    13 :    600.0;    14 :    500.0;    15 :    500.0;Origin  5    1 :    200.0;     2 :    100.0;     3 :    100.0;     4 :    500.0;     5 :      0.0;     6 :    200.0;     7 :    200.0;     8 :    500.0;     9 :    800.0;    10 :   1000.0;    11 :    500.0;    12 :    200.0;    13 :    200.0;    14 :    100.0;    15 :    200.0; Origin  6    1 :    300.0;     2 :    400.0;     3 :    300.0;     4 :    400.0;     5 :    200.0;     6 :      0.0;     7 :    400.0;     8 :    800.0;     9 :    400.0;    10 :    800.0;    11 :    400.0;    12 :    200.0;    13 :    200.0;    14 :    100.0;    15 :    200.0; Origin  7    1 :    500.0;     2 :    200.0;     3 :    100.0;     4 :    400.0;     5 :    200.0;     6 :    400.0;     7 :      0.0;     8 :   1000.0;     9 :    600.0;    10 :   1900.0;    11 :    500.0;    12 :    700.0;    13 :    400.0;    14 :    200.0;    15 :    500.0;  Origin  8    1 :    800.0;     2 :    400.0;     3 :    200.0;     4 :    700.0;     5 :    500.0;     6 :    800.0;     7 :   1000.0;     8 :      0.0;     9 :    800.0;    10 :   1600.0;    11 :    800.0;    12 :    600.0;    13 :    600.0;    14 :    400.0;    15 :    600.0; Origin  9    1 :    500.0;     2 :    200.0;     3 :    100.0;     4 :    700.0;     5 :    800.0;     6 :    400.0;     7 :    600.0;     8 :    800.0;     9 :      0.0;    10 :   2800.0;    11 :   1400.0;    12 :    600.0;    13 :    600.0;    14 :    600.0;    15 :    900.0;Origin  10    1 :   1300.0;     2 :    600.0;     3 :    300.0;     4 :   1200.0;     5 :   1000.0;     6 :    800.0;     7 :   1900.0;     8 :   1600.0;     9 :   2800.0;    10 :      0.0;    11 :   4000.0;    12 :   2000.0;    13 :   1900.0;    14 :   2100.0;    15 :   4000.0;  Origin  11    1 :    500.0;     2 :    200.0;     3 :    300.0;     4 :   1500.0;     5 :    500.0;     6 :    400.0;     7 :    500.0;     8 :    800.0;     9 :   1400.0;    10 :   3900.0;    11 :      0.0;    12 :   1400.0;    13 :   1000.0;    14 :   1600.0;    15 :   1400.0; Origin  12    1 :    200.0;     2 :    100.0;     3 :    200.0;     4 :    600.0;     5 :    200.0;     6 :    200.0;     7 :    700.0;     8 :    600.0;     9 :    600.0;    10 :   2000.0;    11 :   1400.0;    12 :      0.0;    13 :   1300.0;    14 :    700.0;    15 :    700.0;  Origin  13    1 :    500.0;     2 :    300.0;     3 :    100.0;     4 :    600.0;     5 :    200.0;     6 :    200.0;     7 :    400.0;     8 :    600.0;     9 :    600.0;    10 :   1900.0;    11 :   1000.0;    12 :   1300.0;    13 :      0.0;    14 :    600.0;    15 :    700.0; Origin  14    1 :    300.0;     2 :    100.0;     3 :    100.0;     4 :    500.0;     5 :    100.0;     6 :    100.0;     7 :    200.0;     8 :    400.0;     9 :    600.0;    10 :   2100.0;    11 :   1600.0;    12 :    700.0;    13 :    600.0;    14 :      0.0;    15 :   1300.0; Origin  15    1 :    500.0;     2 :    100.0;     3 :    100.0;     4 :    500.0;     5 :    200.0;     6 :    200.0;     7 :    500.0;     8 :    600.0;     9 :   1000.0;    10 :   4000.0;    11 :   1400.0;    12 :    700.0;    13 :    700.0;    14 :   1300.0;    15 :      0.0;